
 *****************************************
 *** Specfem3D MPI database generation ***
 *****************************************

 Running Git package version of the code: 4.1.1
 which is Git unknown
 dating unknown

 This is process            0
 There are            1  MPI processes
 Processes are numbered from 0 to            0

 There is a total of            1  slices

 NGLLX =            5
 NGLLY =            5
 NGLLZ =            5

 Shape functions defined by NGNOD =            8  control nodes
 Surface shape functions defined by NGNOD2D =            4  control nodes
 Beware! Curvature (i.e. HEX27 elements) is not handled by our internal mesher

 velocity model:   gll


 suppressing UTM projection

 no attenuation

 no anisotropy

 no oceans

 incorporating Stacey absorbing conditions

 using a FORCESOLUTION source instead of a CMTSOLUTION source
   with a Ricker source time function


 ************************************
 reading partition files in the model
 ************************************

 external mesh points :        40885
 defined materials    :            3
 undefined materials  :            0
 total number of spectral elements:         4608
 absorbing boundaries: 
   xmin,xmax :          144         144
   ymin,ymax :          256         256
   bottom,top:          576         576

   total number of C-PML elements in the global mesh:            0

 number of MPI partition interfaces:            0

   minimum memory used so far     :    16.5297699     MB per process
   minimum total memory requested :    75.0190735     MB per process

 create regions:

   ...allocating arrays 
     NGLLX   =            5
     NGLLY   =            5
     NGLLZ   =            5
     NGNOD   =            8
     NGNOD2D =            4

     main process setup: 
     nspec           =         4608

     separating regular/irregular element shapes
     nspec regular   =         4608
     nspec irregular =            0

     absorbing boundary faces:
       num_abs_boundary_faces =         1376

     free surface faces:
       num_free_surface_faces =          576


 File DATA/Par_file_faults not found: assuming that there are no faults


   ...setting up jacobian 

   ...indexing global points
      creating ibool indexing     : x min/max =    0.00000000     /   160.000000    
      creating indirect addressing: nglob =       310761
      creating unique point locations

   ...preparing MPI interfaces 
      number of interfaces        :            0

      total MPI interface points:            0
      total assembled MPI interface points:           0

   ...setting up absorbing boundaries
      boundary xmin   :         144
      boundary xmax   :         144
      boundary ymin   :         256
      boundary ymax   :         256
      boundary bottom :         576
      boundary top    :         576
      absorbing boundary:
      total number of free faces =          576
      total number of faces      =         1376

   ...setting up mesh surface

   ...determining velocity model
               10  % time remaining:   2.4765280421944027E-007 s
               20  % time remaining:   2.2111151667842876E-007 s
               30  % time remaining:   1.9356848923143765E-007 s
               40  % time remaining:   1.6641838753470795E-007 s
               50  % time remaining:   1.3885388534039857E-007 s
               60  % time remaining:   1.1115594052000124E-007 s
               70  % time remaining:   8.3498091705106539E-008 s
               80  % time remaining:   5.5972776297523429E-008 s
               90  % time remaining:   2.8239721258882995E-008 s
              100  % time remaining:   4.8269295008132925E-010 s

   ...detecting acoustic-elastic-poroelastic surfaces 
      total acoustic elements   :        1152
      total elastic elements    :        3456
      total poroelastic elements:           0

      acoustic - elastic     coupling : total number of faces =          576
      acoustic - poroelastic coupling : total number of faces =            0
       elastic - poroelastic coupling : total number of faces =            0


   ...element inner/outer separation 
      for overlapping of communications with calculations:
      percentage of   edge elements    0.00000000     %
      percentage of volume elements    100.000000     %


   ...element mesh coloring 
      use coloring =  F

   ...external binary models 
      using GLL model from: ./OUTPUT_FILES/DATABASES_MPI
      reading in: rho.bin
      reading in: vp.bin
      reading in: vs.bin

   ...creating mass matrix 

   ...setting up mesh adjacency 

      mesh adjacency:
      total number of elements in this slice          =         4608

      maximum number of neighbors allowed             =          300
      minimum array memory required per slice         =    5.29101562     (MB)

      maximum number of elements per shared node      =            8
      node-to-element array memory required per slice =    9.48367310     (MB)

               10  % - elapsed time:   1.69923939E-02 s
               20  % - elapsed time:   2.88024023E-02 s
               30  % - elapsed time:   4.30630445E-02 s
               40  % - elapsed time:   6.05169721E-02 s
               50  % - elapsed time:   7.89030865E-02 s
               60  % - elapsed time:   9.85212550E-02 s
               70  % - elapsed time:  0.116764903     s
               80  % - elapsed time:  0.132205129     s
               90  % - elapsed time:  0.144473553     s
              100  % - elapsed time:  0.151022866     s

      maximum neighbors found per element =           26
          (maximum neighbor of neighbors) =           98
      total number of neighbors           =       435216

      Elapsed time for detection of neighbors in seconds =   0.165725753    


   ...saving mesh databases
      using binary file format
      database file (for rank 0): ./OUTPUT_FILES/DATABASES_MPI/proc000000_external_mesh.bin


   ...checking mesh resolution
 Mesh resolution:

 ********
 minimum and maximum number of elements
 and points in the CUBIT + SCOTCH mesh:

 NSPEC_global_min =         4608
 NSPEC_global_max =         4608
 NSPEC_global_max / NSPEC_global_min imbalance =    1.00000000      =    0.00000000      %
 NSPEC_global_sum =         4608

 NGLOB_global_min =       310761
 NGLOB_global_max =       310761
 NGLOB_global_max / NGLOB_global_min imbalance =    1.00000000      =    0.00000000      %
 NGLOB_global_sum =       310761

 If you have elements of a single type (all acoustic, all elastic, all poroelastic, and without CPML)
 in the whole mesh, then there should be no significant imbalance in the above numbers.
 Otherwise, it is normal to have imbalance in elements and points because the domain decomposer
 compensates for the different cost of different elements by partitioning them unevenly among processes.
 ********


 ********
 Model: P   velocity min,max =    1200.00000       2000.00000    
 Model: S   velocity min,max =    0.00000000       800.000000    

 Model: Poisson's ratio min,max =   0.100000001      0.500000000    
 ********

 *********************************************
 *** Verification of simulation parameters ***
 *********************************************

 *** Xmin and Xmax of the model =    0.00000000       160.000000    
 *** Ymin and Ymax of the model =    0.00000000       90.0000000    
 *** Zmin and Zmax of the model =   -40.0000000       0.00000000    

 *** Max GLL point distance =    1.63663483    
 *** Min GLL point distance =   0.863365173    
 *** Max/min ratio =    1.89564610    

 *** Max element size =    5.00000000    
 *** Min element size =    5.00000000    
 *** Max/min ratio =    1.00000000    

 *** Minimum period resolved =    7.81250000E-03
 *** Maximum suggested time step =    2.14999993E-04

 Elapsed time for checking mesh resolution in seconds =    4.3389950000000121E-003

 mesh regions done

 min and max of elevation (i.e. height of the upper surface of the mesh) included in mesh in m is    0.0000000000000000          0.0000000000000000     


 done mesh setup


 Repartition of elements:
 -----------------------

 load distribution:
   element loads: min/max =       153216      153216

   partition            0        has       153216  load units

   load per partition: min/max   =       153216      153216
   load per partition: imbalance =    0.00000000     %
                       (0% being totally balanced, 100% being unbalanced)

 total number of elements in mesh slice 0:         4608
 total number of   regular elements in mesh slice 0:         4608
 total number of irregular elements in mesh slice 0:            0
 total number of points in mesh slice 0:       310761

 total number of elements in entire mesh:         4608
 approximate total number of points in entire mesh (with duplicates on MPI edges):                310761
 approximate total number of DOFs   in entire mesh (with duplicates on MPI edges):                932283

 total number of time steps in the solver will be:         1000

 using single precision for the calculations

 smallest and largest possible floating-point numbers are:    1.17549435E-38   3.40282347E+38


 Elapsed time for mesh generation and buffer creation in seconds =   0.652569950    
 Elapsed time for mesh generation and buffer creation in hh:mm:ss =    0 h 00 m 00 s

 End of mesh generation

 done

